Version 4.1
SHEET 1 12128 3716
WIRE 1504 -2064 1456 -2064
WIRE 1552 -2064 1504 -2064
WIRE 1648 -2064 1552 -2064
WIRE 1744 -2064 1648 -2064
WIRE 1840 -2064 1744 -2064
WIRE 1936 -2064 1840 -2064
WIRE 2032 -2064 1936 -2064
WIRE 2128 -2064 2032 -2064
WIRE 2224 -2064 2128 -2064
WIRE 2320 -2064 2224 -2064
WIRE 2416 -2064 2320 -2064
WIRE 2544 -2064 2416 -2064
WIRE 2848 -2064 2752 -2064
WIRE 2944 -2064 2848 -2064
WIRE 3040 -2064 2944 -2064
WIRE 3136 -2064 3040 -2064
WIRE 3232 -2064 3136 -2064
WIRE 3328 -2064 3232 -2064
WIRE 3424 -2064 3328 -2064
WIRE 3520 -2064 3424 -2064
WIRE 3616 -2064 3520 -2064
WIRE 3712 -2064 3616 -2064
WIRE 3840 -2064 3712 -2064
WIRE 4144 -2064 4048 -2064
WIRE 4240 -2064 4144 -2064
WIRE 4336 -2064 4240 -2064
WIRE 4432 -2064 4336 -2064
WIRE 4528 -2064 4432 -2064
WIRE 4624 -2064 4528 -2064
WIRE 4720 -2064 4624 -2064
WIRE 4816 -2064 4720 -2064
WIRE 4912 -2064 4816 -2064
WIRE 5008 -2064 4912 -2064
WIRE 5136 -2064 5008 -2064
WIRE 5440 -2064 5344 -2064
WIRE 5536 -2064 5440 -2064
WIRE 5632 -2064 5536 -2064
WIRE 5728 -2064 5632 -2064
WIRE 5824 -2064 5728 -2064
WIRE 5920 -2064 5824 -2064
WIRE 6016 -2064 5920 -2064
WIRE 6112 -2064 6016 -2064
WIRE 6208 -2064 6112 -2064
WIRE 6304 -2064 6208 -2064
WIRE 6432 -2064 6304 -2064
WIRE 6720 -2064 6624 -2064
WIRE 6816 -2064 6720 -2064
WIRE 6912 -2064 6816 -2064
WIRE 7008 -2064 6912 -2064
WIRE 7104 -2064 7008 -2064
WIRE 7200 -2064 7104 -2064
WIRE 7296 -2064 7200 -2064
WIRE 7392 -2064 7296 -2064
WIRE 7488 -2064 7392 -2064
WIRE 7584 -2064 7488 -2064
WIRE 7712 -2064 7584 -2064
WIRE 8000 -2064 7904 -2064
WIRE 8096 -2064 8000 -2064
WIRE 8192 -2064 8096 -2064
WIRE 8288 -2064 8192 -2064
WIRE 8384 -2064 8288 -2064
WIRE 8480 -2064 8384 -2064
WIRE 8576 -2064 8480 -2064
WIRE 8672 -2064 8576 -2064
WIRE 8768 -2064 8672 -2064
WIRE 8864 -2064 8768 -2064
WIRE 8992 -2064 8864 -2064
WIRE 9312 -2064 9216 -2064
WIRE 9408 -2064 9312 -2064
WIRE 9504 -2064 9408 -2064
WIRE 9600 -2064 9504 -2064
WIRE 9696 -2064 9600 -2064
WIRE 9792 -2064 9696 -2064
WIRE 9888 -2064 9792 -2064
WIRE 9984 -2064 9888 -2064
WIRE 10080 -2064 9984 -2064
WIRE 10176 -2064 10080 -2064
WIRE 10304 -2064 10176 -2064
WIRE 1552 -2016 1552 -2064
WIRE 1648 -2016 1648 -2064
WIRE 1744 -2016 1744 -2064
WIRE 1840 -2016 1840 -2064
WIRE 1936 -2016 1936 -2064
WIRE 2032 -2016 2032 -2064
WIRE 2128 -2016 2128 -2064
WIRE 2224 -2016 2224 -2064
WIRE 2320 -2016 2320 -2064
WIRE 2416 -2016 2416 -2064
WIRE 2848 -2016 2848 -2064
WIRE 2944 -2016 2944 -2064
WIRE 3040 -2016 3040 -2064
WIRE 3136 -2016 3136 -2064
WIRE 3232 -2016 3232 -2064
WIRE 3328 -2016 3328 -2064
WIRE 3424 -2016 3424 -2064
WIRE 3520 -2016 3520 -2064
WIRE 3616 -2016 3616 -2064
WIRE 3712 -2016 3712 -2064
WIRE 4144 -2016 4144 -2064
WIRE 4240 -2016 4240 -2064
WIRE 4336 -2016 4336 -2064
WIRE 4432 -2016 4432 -2064
WIRE 4528 -2016 4528 -2064
WIRE 4624 -2016 4624 -2064
WIRE 4720 -2016 4720 -2064
WIRE 4816 -2016 4816 -2064
WIRE 4912 -2016 4912 -2064
WIRE 5008 -2016 5008 -2064
WIRE 5440 -2016 5440 -2064
WIRE 5536 -2016 5536 -2064
WIRE 5632 -2016 5632 -2064
WIRE 5728 -2016 5728 -2064
WIRE 5824 -2016 5824 -2064
WIRE 5920 -2016 5920 -2064
WIRE 6016 -2016 6016 -2064
WIRE 6112 -2016 6112 -2064
WIRE 6208 -2016 6208 -2064
WIRE 6304 -2016 6304 -2064
WIRE 6720 -2016 6720 -2064
WIRE 6816 -2016 6816 -2064
WIRE 6912 -2016 6912 -2064
WIRE 7008 -2016 7008 -2064
WIRE 7104 -2016 7104 -2064
WIRE 7200 -2016 7200 -2064
WIRE 7296 -2016 7296 -2064
WIRE 7392 -2016 7392 -2064
WIRE 7488 -2016 7488 -2064
WIRE 7584 -2016 7584 -2064
WIRE 8000 -2016 8000 -2064
WIRE 8096 -2016 8096 -2064
WIRE 8192 -2016 8192 -2064
WIRE 8288 -2016 8288 -2064
WIRE 8384 -2016 8384 -2064
WIRE 8480 -2016 8480 -2064
WIRE 8576 -2016 8576 -2064
WIRE 8672 -2016 8672 -2064
WIRE 8768 -2016 8768 -2064
WIRE 8864 -2016 8864 -2064
WIRE 9312 -2016 9312 -2064
WIRE 9408 -2016 9408 -2064
WIRE 9504 -2016 9504 -2064
WIRE 9600 -2016 9600 -2064
WIRE 9696 -2016 9696 -2064
WIRE 9792 -2016 9792 -2064
WIRE 9888 -2016 9888 -2064
WIRE 9984 -2016 9984 -2064
WIRE 10080 -2016 10080 -2064
WIRE 10176 -2016 10176 -2064
WIRE 2032 -1904 2032 -1952
WIRE 2032 -1904 2000 -1904
WIRE 3328 -1904 3328 -1952
WIRE 3328 -1904 3296 -1904
WIRE 4624 -1904 4624 -1952
WIRE 4624 -1904 4592 -1904
WIRE 5920 -1904 5920 -1952
WIRE 5920 -1904 5888 -1904
WIRE 7200 -1904 7200 -1952
WIRE 7200 -1904 7168 -1904
WIRE 8480 -1904 8480 -1952
WIRE 8480 -1904 8448 -1904
WIRE 9792 -1904 9792 -1952
WIRE 9792 -1904 9760 -1904
WIRE 1936 -1888 1936 -1952
WIRE 2128 -1888 2128 -1952
WIRE 3232 -1888 3232 -1952
WIRE 3424 -1888 3424 -1952
WIRE 4528 -1888 4528 -1952
WIRE 4720 -1888 4720 -1952
WIRE 5824 -1888 5824 -1952
WIRE 6016 -1888 6016 -1952
WIRE 7104 -1888 7104 -1952
WIRE 7296 -1888 7296 -1952
WIRE 8384 -1888 8384 -1952
WIRE 8576 -1888 8576 -1952
WIRE 9696 -1888 9696 -1952
WIRE 9888 -1888 9888 -1952
WIRE 1552 -1872 1552 -1952
WIRE 1840 -1872 1840 -1952
WIRE 1936 -1872 1936 -1888
WIRE 1968 -1872 1936 -1872
WIRE 2000 -1872 2000 -1904
WIRE 2128 -1872 2128 -1888
WIRE 2128 -1872 2032 -1872
WIRE 2224 -1872 2224 -1952
WIRE 2320 -1872 2320 -1952
WIRE 2416 -1872 2416 -1952
WIRE 2848 -1872 2848 -1952
WIRE 3136 -1872 3136 -1952
WIRE 3232 -1872 3232 -1888
WIRE 3264 -1872 3232 -1872
WIRE 3296 -1872 3296 -1904
WIRE 3424 -1872 3424 -1888
WIRE 3424 -1872 3328 -1872
WIRE 3520 -1872 3520 -1952
WIRE 3616 -1872 3616 -1952
WIRE 3712 -1872 3712 -1952
WIRE 4144 -1872 4144 -1952
WIRE 4432 -1872 4432 -1952
WIRE 4528 -1872 4528 -1888
WIRE 4560 -1872 4528 -1872
WIRE 4592 -1872 4592 -1904
WIRE 4720 -1872 4720 -1888
WIRE 4720 -1872 4624 -1872
WIRE 4816 -1872 4816 -1952
WIRE 4912 -1872 4912 -1952
WIRE 5008 -1872 5008 -1952
WIRE 5440 -1872 5440 -1952
WIRE 5728 -1872 5728 -1952
WIRE 5824 -1872 5824 -1888
WIRE 5856 -1872 5824 -1872
WIRE 5888 -1872 5888 -1904
WIRE 6016 -1872 6016 -1888
WIRE 6016 -1872 5920 -1872
WIRE 6112 -1872 6112 -1952
WIRE 6208 -1872 6208 -1952
WIRE 6304 -1872 6304 -1952
WIRE 6720 -1872 6720 -1952
WIRE 7008 -1872 7008 -1952
WIRE 7104 -1872 7104 -1888
WIRE 7136 -1872 7104 -1872
WIRE 7168 -1872 7168 -1904
WIRE 7296 -1872 7296 -1888
WIRE 7296 -1872 7200 -1872
WIRE 7392 -1872 7392 -1952
WIRE 7488 -1872 7488 -1952
WIRE 7584 -1872 7584 -1952
WIRE 8000 -1872 8000 -1952
WIRE 8288 -1872 8288 -1952
WIRE 8384 -1872 8384 -1888
WIRE 8416 -1872 8384 -1872
WIRE 8448 -1872 8448 -1904
WIRE 8576 -1872 8576 -1888
WIRE 8576 -1872 8480 -1872
WIRE 8672 -1872 8672 -1952
WIRE 8768 -1872 8768 -1952
WIRE 8864 -1872 8864 -1952
WIRE 9312 -1872 9312 -1952
WIRE 9600 -1872 9600 -1952
WIRE 9696 -1872 9696 -1888
WIRE 9728 -1872 9696 -1872
WIRE 9760 -1872 9760 -1904
WIRE 9888 -1872 9888 -1888
WIRE 9888 -1872 9792 -1872
WIRE 9984 -1872 9984 -1952
WIRE 10080 -1872 10080 -1952
WIRE 10176 -1872 10176 -1952
WIRE 1648 -1856 1648 -1952
WIRE 1744 -1856 1744 -1952
WIRE 2944 -1856 2944 -1952
WIRE 3040 -1856 3040 -1952
WIRE 4240 -1856 4240 -1952
WIRE 4336 -1856 4336 -1952
WIRE 5536 -1856 5536 -1952
WIRE 5632 -1856 5632 -1952
WIRE 6816 -1856 6816 -1952
WIRE 6912 -1856 6912 -1952
WIRE 8096 -1856 8096 -1952
WIRE 8192 -1856 8192 -1952
WIRE 9408 -1856 9408 -1952
WIRE 9504 -1856 9504 -1952
WIRE 1840 -1840 1840 -1872
WIRE 1936 -1840 1840 -1840
WIRE 2224 -1840 2224 -1872
WIRE 2224 -1840 2064 -1840
WIRE 3136 -1840 3136 -1872
WIRE 3232 -1840 3136 -1840
WIRE 3520 -1840 3520 -1872
WIRE 3520 -1840 3360 -1840
WIRE 4432 -1840 4432 -1872
WIRE 4528 -1840 4432 -1840
WIRE 4816 -1840 4816 -1872
WIRE 4816 -1840 4656 -1840
WIRE 5728 -1840 5728 -1872
WIRE 5824 -1840 5728 -1840
WIRE 6112 -1840 6112 -1872
WIRE 6112 -1840 5952 -1840
WIRE 7008 -1840 7008 -1872
WIRE 7104 -1840 7008 -1840
WIRE 7392 -1840 7392 -1872
WIRE 7392 -1840 7232 -1840
WIRE 8288 -1840 8288 -1872
WIRE 8384 -1840 8288 -1840
WIRE 8672 -1840 8672 -1872
WIRE 8672 -1840 8512 -1840
WIRE 9600 -1840 9600 -1872
WIRE 9696 -1840 9600 -1840
WIRE 9984 -1840 9984 -1872
WIRE 9984 -1840 9824 -1840
WIRE 1744 -1808 1744 -1856
WIRE 1904 -1808 1744 -1808
WIRE 2320 -1808 2320 -1872
WIRE 2320 -1808 2096 -1808
WIRE 3040 -1808 3040 -1856
WIRE 3200 -1808 3040 -1808
WIRE 3616 -1808 3616 -1872
WIRE 3616 -1808 3392 -1808
WIRE 4336 -1808 4336 -1856
WIRE 4496 -1808 4336 -1808
WIRE 4912 -1808 4912 -1872
WIRE 4912 -1808 4688 -1808
WIRE 5632 -1808 5632 -1856
WIRE 5792 -1808 5632 -1808
WIRE 6208 -1808 6208 -1872
WIRE 6208 -1808 5984 -1808
WIRE 6912 -1808 6912 -1856
WIRE 7072 -1808 6912 -1808
WIRE 7488 -1808 7488 -1872
WIRE 7488 -1808 7264 -1808
WIRE 8192 -1808 8192 -1856
WIRE 8352 -1808 8192 -1808
WIRE 8768 -1808 8768 -1872
WIRE 8768 -1808 8544 -1808
WIRE 9504 -1808 9504 -1856
WIRE 9664 -1808 9504 -1808
WIRE 10080 -1808 10080 -1872
WIRE 10080 -1808 9856 -1808
WIRE 1648 -1776 1648 -1856
WIRE 1872 -1776 1648 -1776
WIRE 2416 -1776 2416 -1872
WIRE 2416 -1776 2128 -1776
WIRE 2944 -1776 2944 -1856
WIRE 3168 -1776 2944 -1776
WIRE 3712 -1776 3712 -1872
WIRE 3712 -1776 3424 -1776
WIRE 4240 -1776 4240 -1856
WIRE 4464 -1776 4240 -1776
WIRE 5008 -1776 5008 -1872
WIRE 5008 -1776 4720 -1776
WIRE 5536 -1776 5536 -1856
WIRE 5760 -1776 5536 -1776
WIRE 6304 -1776 6304 -1872
WIRE 6304 -1776 6016 -1776
WIRE 6816 -1776 6816 -1856
WIRE 7040 -1776 6816 -1776
WIRE 7584 -1776 7584 -1872
WIRE 7584 -1776 7296 -1776
WIRE 8096 -1776 8096 -1856
WIRE 8320 -1776 8096 -1776
WIRE 8864 -1776 8864 -1872
WIRE 8864 -1776 8576 -1776
WIRE 9408 -1776 9408 -1856
WIRE 9632 -1776 9408 -1776
WIRE 10176 -1776 10176 -1872
WIRE 10176 -1776 9888 -1776
WIRE 1872 -1728 1872 -1776
WIRE 1904 -1728 1904 -1808
WIRE 1936 -1728 1936 -1840
WIRE 1968 -1728 1968 -1872
WIRE 2000 -1728 2000 -1872
WIRE 2032 -1728 2032 -1872
WIRE 2064 -1728 2064 -1840
WIRE 2096 -1728 2096 -1808
WIRE 2128 -1728 2128 -1776
WIRE 3168 -1728 3168 -1776
WIRE 3200 -1728 3200 -1808
WIRE 3232 -1728 3232 -1840
WIRE 3264 -1728 3264 -1872
WIRE 3296 -1728 3296 -1872
WIRE 3328 -1728 3328 -1872
WIRE 3360 -1728 3360 -1840
WIRE 3392 -1728 3392 -1808
WIRE 3424 -1728 3424 -1776
WIRE 4464 -1728 4464 -1776
WIRE 4496 -1728 4496 -1808
WIRE 4528 -1728 4528 -1840
WIRE 4560 -1728 4560 -1872
WIRE 4592 -1728 4592 -1872
WIRE 4624 -1728 4624 -1872
WIRE 4656 -1728 4656 -1840
WIRE 4688 -1728 4688 -1808
WIRE 4720 -1728 4720 -1776
WIRE 5760 -1728 5760 -1776
WIRE 5792 -1728 5792 -1808
WIRE 5824 -1728 5824 -1840
WIRE 5856 -1728 5856 -1872
WIRE 5888 -1728 5888 -1872
WIRE 5920 -1728 5920 -1872
WIRE 5952 -1728 5952 -1840
WIRE 5984 -1728 5984 -1808
WIRE 6016 -1728 6016 -1776
WIRE 7040 -1728 7040 -1776
WIRE 7072 -1728 7072 -1808
WIRE 7104 -1728 7104 -1840
WIRE 7136 -1728 7136 -1872
WIRE 7168 -1728 7168 -1872
WIRE 7200 -1728 7200 -1872
WIRE 7232 -1728 7232 -1840
WIRE 7264 -1728 7264 -1808
WIRE 7296 -1728 7296 -1776
WIRE 8320 -1728 8320 -1776
WIRE 8352 -1728 8352 -1808
WIRE 8384 -1728 8384 -1840
WIRE 8416 -1728 8416 -1872
WIRE 8448 -1728 8448 -1872
WIRE 8480 -1728 8480 -1872
WIRE 8512 -1728 8512 -1840
WIRE 8544 -1728 8544 -1808
WIRE 8576 -1728 8576 -1776
WIRE 9632 -1728 9632 -1776
WIRE 9664 -1728 9664 -1808
WIRE 9696 -1728 9696 -1840
WIRE 9728 -1728 9728 -1872
WIRE 9760 -1728 9760 -1872
WIRE 9792 -1728 9792 -1872
WIRE 9824 -1728 9824 -1840
WIRE 9856 -1728 9856 -1808
WIRE 9888 -1728 9888 -1776
WIRE 1552 -1536 1552 -1872
WIRE 1872 -1536 1872 -1552
WIRE 1872 -1536 1552 -1536
WIRE 2128 -1536 2128 -1552
WIRE 2544 -1536 2544 -2064
WIRE 2544 -1536 2128 -1536
WIRE 2848 -1536 2848 -1872
WIRE 3168 -1536 3168 -1552
WIRE 3168 -1536 2848 -1536
WIRE 3424 -1536 3424 -1552
WIRE 3840 -1536 3840 -2064
WIRE 3840 -1536 3424 -1536
WIRE 4144 -1536 4144 -1872
WIRE 4464 -1536 4464 -1552
WIRE 4464 -1536 4144 -1536
WIRE 4720 -1536 4720 -1552
WIRE 5136 -1536 5136 -2064
WIRE 5136 -1536 4720 -1536
WIRE 5440 -1536 5440 -1872
WIRE 5760 -1536 5760 -1552
WIRE 5760 -1536 5440 -1536
WIRE 6016 -1536 6016 -1552
WIRE 6432 -1536 6432 -2064
WIRE 6432 -1536 6016 -1536
WIRE 6720 -1536 6720 -1872
WIRE 7040 -1536 7040 -1552
WIRE 7040 -1536 6720 -1536
WIRE 7296 -1536 7296 -1552
WIRE 7712 -1536 7712 -2064
WIRE 7712 -1536 7296 -1536
WIRE 8000 -1536 8000 -1872
WIRE 8320 -1536 8320 -1552
WIRE 8320 -1536 8000 -1536
WIRE 8576 -1536 8576 -1552
WIRE 8992 -1536 8992 -2064
WIRE 8992 -1536 8576 -1536
WIRE 9312 -1536 9312 -1872
WIRE 9632 -1536 9632 -1552
WIRE 9632 -1536 9312 -1536
WIRE 9888 -1536 9888 -1552
WIRE 10304 -1536 10304 -2064
WIRE 10304 -1536 9888 -1536
WIRE 1504 -1520 1504 -2064
WIRE 1904 -1488 1904 -1552
WIRE 1968 -1488 1968 -1552
WIRE 1968 -1488 1904 -1488
WIRE 2064 -1488 2064 -1552
WIRE 2096 -1488 2096 -1552
WIRE 2160 -1488 2096 -1488
WIRE 3200 -1488 3200 -1552
WIRE 3264 -1488 3264 -1552
WIRE 3264 -1488 3200 -1488
WIRE 3360 -1488 3360 -1552
WIRE 3392 -1488 3392 -1552
WIRE 3456 -1488 3392 -1488
WIRE 4496 -1488 4496 -1552
WIRE 4560 -1488 4560 -1552
WIRE 4560 -1488 4496 -1488
WIRE 4656 -1488 4656 -1552
WIRE 4688 -1488 4688 -1552
WIRE 4752 -1488 4688 -1488
WIRE 5792 -1488 5792 -1552
WIRE 5856 -1488 5856 -1552
WIRE 5856 -1488 5792 -1488
WIRE 5952 -1488 5952 -1552
WIRE 5984 -1488 5984 -1552
WIRE 6048 -1488 5984 -1488
WIRE 7072 -1488 7072 -1552
WIRE 7136 -1488 7136 -1552
WIRE 7136 -1488 7072 -1488
WIRE 7232 -1488 7232 -1552
WIRE 7264 -1488 7264 -1552
WIRE 7328 -1488 7264 -1488
WIRE 8352 -1488 8352 -1552
WIRE 8416 -1488 8416 -1552
WIRE 8416 -1488 8352 -1488
WIRE 8512 -1488 8512 -1552
WIRE 8544 -1488 8544 -1552
WIRE 8608 -1488 8544 -1488
WIRE 9664 -1488 9664 -1552
WIRE 9728 -1488 9728 -1552
WIRE 9728 -1488 9664 -1488
WIRE 9824 -1488 9824 -1552
WIRE 9856 -1488 9856 -1552
WIRE 9920 -1488 9856 -1488
WIRE 2064 -1472 2064 -1488
WIRE 2592 -1472 2304 -1472
WIRE 3360 -1472 3360 -1488
WIRE 4656 -1472 4656 -1488
WIRE 5952 -1472 5952 -1488
WIRE 7232 -1472 7232 -1488
WIRE 8512 -1472 8512 -1488
WIRE 9824 -1472 9824 -1488
WIRE 1504 -1424 1504 -1456
WIRE 1904 -1424 1904 -1488
WIRE 1904 -1424 1504 -1424
WIRE 1088 -1408 912 -1408
WIRE 1904 -1392 1904 -1424
WIRE 2304 -1392 2304 -1472
WIRE 2304 -1392 2064 -1392
WIRE 3200 -1392 3200 -1488
WIRE 3456 -1392 3360 -1392
WIRE 4496 -1392 4496 -1488
WIRE 4752 -1392 4656 -1392
WIRE 5792 -1392 5792 -1488
WIRE 6048 -1392 5952 -1392
WIRE 7072 -1392 7072 -1488
WIRE 7328 -1392 7232 -1392
WIRE 8352 -1392 8352 -1488
WIRE 8608 -1392 8512 -1392
WIRE 9664 -1392 9664 -1488
WIRE 9920 -1392 9824 -1392
WIRE 1456 -1344 1456 -2064
WIRE 1936 -1344 1936 -1552
WIRE 1936 -1344 1456 -1344
WIRE 2752 -1344 2752 -2064
WIRE 3232 -1344 3232 -1552
WIRE 3232 -1344 2752 -1344
WIRE 4048 -1344 4048 -2064
WIRE 4528 -1344 4528 -1552
WIRE 4528 -1344 4048 -1344
WIRE 5344 -1344 5344 -2064
WIRE 5824 -1344 5824 -1552
WIRE 5824 -1344 5344 -1344
WIRE 6624 -1344 6624 -2064
WIRE 7104 -1344 7104 -1552
WIRE 7104 -1344 6624 -1344
WIRE 7904 -1344 7904 -2064
WIRE 8384 -1344 8384 -1552
WIRE 8384 -1344 7904 -1344
WIRE 9216 -1344 9216 -2064
WIRE 9696 -1344 9696 -1552
WIRE 9696 -1344 9216 -1344
WIRE 2400 -1328 2272 -1328
WIRE 912 -1312 912 -1408
WIRE 960 -1312 912 -1312
WIRE 1088 -1296 1088 -1408
WIRE 1088 -1296 1024 -1296
WIRE 1120 -1296 1088 -1296
WIRE 1136 -1296 1120 -1296
WIRE 1936 -1296 1936 -1344
WIRE 3232 -1296 3232 -1344
WIRE 4528 -1296 4528 -1344
WIRE 5824 -1296 5824 -1344
WIRE 7104 -1296 7104 -1344
WIRE 8384 -1296 8384 -1344
WIRE 9696 -1296 9696 -1344
WIRE 880 -1280 848 -1280
WIRE 960 -1280 880 -1280
WIRE 2032 -1232 2032 -1552
WIRE 2160 -1232 2032 -1232
WIRE 2272 -1232 2272 -1248
WIRE 2272 -1232 2160 -1232
WIRE 1696 -1216 1696 -1264
WIRE 2272 -1216 2272 -1232
WIRE 3328 -1216 3328 -1552
WIRE 4624 -1216 4624 -1552
WIRE 5920 -1216 5920 -1552
WIRE 7200 -1216 7200 -1552
WIRE 8480 -1216 8480 -1552
WIRE 9792 -1216 9792 -1552
WIRE 2000 -1136 2000 -1552
WIRE 3296 -1136 3296 -1552
WIRE 4592 -1136 4592 -1552
WIRE 5888 -1136 5888 -1552
WIRE 7168 -1136 7168 -1552
WIRE 8448 -1136 8448 -1552
WIRE 9760 -1136 9760 -1552
WIRE 2272 -1120 2272 -1136
WIRE 1024 -1056 976 -1056
WIRE 1040 -1056 1024 -1056
WIRE 1120 -1056 1104 -1056
WIRE 1024 -1040 1024 -1056
WIRE 1664 -1040 1488 -1040
WIRE 1296 -1008 1248 -1008
WIRE 800 -960 800 -992
WIRE 1488 -944 1488 -1040
WIRE 1536 -944 1488 -944
WIRE 2592 -944 2592 -1472
WIRE 2784 -944 2592 -944
WIRE 3456 -944 3456 -1392
WIRE 3456 -944 2784 -944
WIRE 4752 -944 4752 -1392
WIRE 4752 -944 3456 -944
WIRE 6048 -944 6048 -1392
WIRE 6048 -944 4752 -944
WIRE 7328 -944 7328 -1392
WIRE 7328 -944 6048 -944
WIRE 8608 -944 8608 -1392
WIRE 8608 -944 7328 -944
WIRE 9920 -944 9920 -1392
WIRE 9920 -944 8608 -944
WIRE 1664 -928 1664 -1040
WIRE 1664 -928 1600 -928
WIRE 1696 -928 1664 -928
WIRE 1712 -928 1696 -928
WIRE 1456 -912 1424 -912
WIRE 1536 -912 1456 -912
WIRE 800 -800 800 -880
WIRE 2784 -800 2784 -944
WIRE 2784 -704 2784 -720
WIRE 800 -624 800 -720
WIRE 1696 -496 1696 -528
WIRE 1872 -496 1872 -528
WIRE 800 -448 800 -544
WIRE 1696 -384 1696 -416
WIRE 1872 -384 1872 -416
WIRE 1520 -320 1472 -320
WIRE 1648 -320 1584 -320
WIRE 1920 -320 1648 -320
WIRE 2208 -320 2144 -320
WIRE 2464 -320 2208 -320
WIRE 2624 -320 2608 -320
WIRE 2752 -320 2688 -320
WIRE 2992 -320 2752 -320
WIRE 3328 -320 3280 -320
WIRE 3456 -320 3392 -320
WIRE 3728 -320 3456 -320
WIRE 4016 -320 3952 -320
WIRE 4272 -320 4016 -320
WIRE 4432 -320 4416 -320
WIRE 4560 -320 4496 -320
WIRE 4800 -320 4560 -320
WIRE 5136 -320 5088 -320
WIRE 5264 -320 5200 -320
WIRE 5536 -320 5264 -320
WIRE 5824 -320 5760 -320
WIRE 6080 -320 5824 -320
WIRE 6240 -320 6224 -320
WIRE 6368 -320 6304 -320
WIRE 6608 -320 6368 -320
WIRE 800 -256 800 -368
WIRE 1328 -192 1248 -192
WIRE 1472 -192 1472 -320
WIRE 1472 -192 1408 -192
WIRE 1520 -192 1472 -192
WIRE 1648 -192 1648 -240
WIRE 1648 -192 1584 -192
WIRE 1792 -192 1648 -192
WIRE 2080 -192 2080 -320
WIRE 2080 -192 2048 -192
WIRE 2208 -192 2208 -240
WIRE 2208 -192 2144 -192
WIRE 2352 -192 2208 -192
WIRE 2608 -192 2608 -320
WIRE 2608 -192 2576 -192
WIRE 2624 -192 2608 -192
WIRE 2752 -192 2752 -240
WIRE 2752 -192 2688 -192
WIRE 2864 -192 2752 -192
WIRE 3136 -192 3056 -192
WIRE 3280 -192 3280 -320
WIRE 3280 -192 3216 -192
WIRE 3328 -192 3280 -192
WIRE 3456 -192 3456 -240
WIRE 3456 -192 3392 -192
WIRE 3600 -192 3456 -192
WIRE 3888 -192 3888 -320
WIRE 3888 -192 3856 -192
WIRE 4016 -192 4016 -240
WIRE 4016 -192 3952 -192
WIRE 4160 -192 4016 -192
WIRE 4416 -192 4416 -320
WIRE 4416 -192 4384 -192
WIRE 4432 -192 4416 -192
WIRE 4560 -192 4560 -240
WIRE 4560 -192 4496 -192
WIRE 4672 -192 4560 -192
WIRE 4944 -192 4864 -192
WIRE 5088 -192 5088 -320
WIRE 5088 -192 5024 -192
WIRE 5136 -192 5088 -192
WIRE 5264 -192 5264 -240
WIRE 5264 -192 5200 -192
WIRE 5408 -192 5264 -192
WIRE 5696 -192 5696 -320
WIRE 5696 -192 5664 -192
WIRE 5824 -192 5824 -240
WIRE 5824 -192 5760 -192
WIRE 5968 -192 5824 -192
WIRE 6224 -192 6224 -320
WIRE 6224 -192 6192 -192
WIRE 6240 -192 6224 -192
WIRE 6368 -192 6368 -240
WIRE 6368 -192 6304 -192
WIRE 6480 -192 6368 -192
WIRE 1920 -176 1920 -320
WIRE 1920 -176 1856 -176
WIRE 1968 -176 1968 -192
WIRE 1968 -176 1920 -176
WIRE 2464 -176 2464 -320
WIRE 2464 -176 2416 -176
WIRE 2496 -176 2496 -192
WIRE 2496 -176 2464 -176
WIRE 2992 -176 2992 -320
WIRE 2992 -176 2928 -176
WIRE 3728 -176 3728 -320
WIRE 3728 -176 3664 -176
WIRE 3776 -176 3776 -192
WIRE 3776 -176 3728 -176
WIRE 4272 -176 4272 -320
WIRE 4272 -176 4224 -176
WIRE 4304 -176 4304 -192
WIRE 4304 -176 4272 -176
WIRE 4800 -176 4800 -320
WIRE 4800 -176 4736 -176
WIRE 5536 -176 5536 -320
WIRE 5536 -176 5472 -176
WIRE 5584 -176 5584 -192
WIRE 5584 -176 5536 -176
WIRE 6080 -176 6080 -320
WIRE 6080 -176 6032 -176
WIRE 6112 -176 6112 -192
WIRE 6112 -176 6080 -176
WIRE 6608 -176 6608 -320
WIRE 6608 -176 6544 -176
WIRE 1472 -160 1472 -192
WIRE 1792 -160 1728 -160
WIRE 2352 -160 2256 -160
WIRE 2864 -160 2768 -160
WIRE 3600 -160 3536 -160
WIRE 4160 -160 4064 -160
WIRE 4672 -160 4576 -160
WIRE 5408 -160 5312 -160
WIRE 5968 -160 5872 -160
WIRE 6480 -160 6384 -160
WIRE 2080 -144 2080 -192
WIRE 2608 -144 2608 -192
WIRE 3728 -144 3728 -176
WIRE 3888 -144 3888 -192
WIRE 4416 -144 4416 -192
WIRE 5088 -144 5088 -192
WIRE 5696 -144 5696 -192
WIRE 6224 -144 6224 -192
WIRE 800 -96 800 -176
WIRE 1472 -64 1472 -80
WIRE 1728 -64 1728 -160
WIRE 2080 -48 2080 -64
WIRE 2256 -48 2256 -160
WIRE 2608 -48 2608 -64
WIRE 2768 -48 2768 -160
WIRE 3536 -48 3536 -160
WIRE 3728 -48 3728 -64
WIRE 3728 -48 3536 -48
WIRE 3888 -48 3888 -64
WIRE 4064 -48 4064 -160
WIRE 4416 -48 4416 -64
WIRE 4576 -48 4576 -160
WIRE 5088 -48 5088 -64
WIRE 5312 -48 5312 -160
WIRE 5696 -48 5696 -64
WIRE 5872 -48 5872 -160
WIRE 6224 -48 6224 -64
WIRE 6384 -48 6384 -160
WIRE 3728 -16 3728 -48
WIRE 800 64 800 -16
WIRE 3728 80 3728 64
WIRE 800 176 800 144
WIRE 2416 304 2368 304
WIRE 2544 304 2480 304
WIRE 2816 304 2544 304
WIRE 3104 304 3040 304
WIRE 3360 304 3104 304
WIRE 3520 304 3504 304
WIRE 3648 304 3584 304
WIRE 3888 304 3648 304
WIRE 4256 304 4208 304
WIRE 4384 304 4320 304
WIRE 4656 304 4384 304
WIRE 4944 304 4880 304
WIRE 5200 304 4944 304
WIRE 5360 304 5344 304
WIRE 5488 304 5424 304
WIRE 5728 304 5488 304
WIRE 2224 432 2144 432
WIRE 2368 432 2368 304
WIRE 2368 432 2304 432
WIRE 2416 432 2368 432
WIRE 2544 432 2544 384
WIRE 2544 432 2480 432
WIRE 2688 432 2544 432
WIRE 2976 432 2976 304
WIRE 2976 432 2944 432
WIRE 3104 432 3104 384
WIRE 3104 432 3040 432
WIRE 3248 432 3104 432
WIRE 3504 432 3504 304
WIRE 3504 432 3472 432
WIRE 3520 432 3504 432
WIRE 3648 432 3648 384
WIRE 3648 432 3584 432
WIRE 3760 432 3648 432
WIRE 4064 432 3984 432
WIRE 4208 432 4208 304
WIRE 4208 432 4144 432
WIRE 4256 432 4208 432
WIRE 4384 432 4384 384
WIRE 4384 432 4320 432
WIRE 4528 432 4384 432
WIRE 4816 432 4816 304
WIRE 4816 432 4784 432
WIRE 4944 432 4944 384
WIRE 4944 432 4880 432
WIRE 5088 432 4944 432
WIRE 5344 432 5344 304
WIRE 5344 432 5312 432
WIRE 5360 432 5344 432
WIRE 5488 432 5488 384
WIRE 5488 432 5424 432
WIRE 5600 432 5488 432
WIRE 2816 448 2816 304
WIRE 2816 448 2752 448
WIRE 2864 448 2864 432
WIRE 2864 448 2816 448
WIRE 3360 448 3360 304
WIRE 3360 448 3312 448
WIRE 3392 448 3392 432
WIRE 3392 448 3360 448
WIRE 3888 448 3888 304
WIRE 3888 448 3824 448
WIRE 4656 448 4656 304
WIRE 4656 448 4592 448
WIRE 4704 448 4704 432
WIRE 4704 448 4656 448
WIRE 5200 448 5200 304
WIRE 5200 448 5152 448
WIRE 5232 448 5232 432
WIRE 5232 448 5200 448
WIRE 5728 448 5728 304
WIRE 5728 448 5664 448
WIRE 2688 464 2624 464
WIRE 3248 464 3152 464
WIRE 3760 464 3664 464
WIRE 4528 464 4464 464
WIRE 5088 464 4992 464
WIRE 5600 464 5504 464
WIRE 2976 480 2976 432
WIRE 3504 480 3504 432
WIRE 4208 480 4208 432
WIRE 4816 480 4816 432
WIRE 5344 480 5344 432
WIRE 2816 496 2816 448
WIRE 2976 576 2976 560
WIRE 3152 576 3152 464
WIRE 3504 576 3504 560
WIRE 3664 576 3664 464
WIRE 4208 576 4208 560
WIRE 4464 576 4464 464
WIRE 4816 576 4816 560
WIRE 4992 576 4992 464
WIRE 5344 576 5344 560
WIRE 5504 576 5504 464
WIRE 2624 592 2624 464
WIRE 2816 592 2816 576
WIRE 2816 592 2624 592
WIRE 2816 608 2816 592
WIRE 2816 720 2816 688
WIRE 2464 960 2416 960
WIRE 2592 960 2528 960
WIRE 2864 960 2592 960
WIRE 3152 960 3088 960
WIRE 3408 960 3152 960
WIRE 3568 960 3552 960
WIRE 3696 960 3632 960
WIRE 3936 960 3696 960
WIRE 4272 960 4224 960
WIRE 4400 960 4336 960
WIRE 4672 960 4400 960
WIRE 4960 960 4896 960
WIRE 5216 960 4960 960
WIRE 5376 960 5360 960
WIRE 5504 960 5440 960
WIRE 5744 960 5504 960
WIRE 2272 1088 2192 1088
WIRE 2416 1088 2416 960
WIRE 2416 1088 2352 1088
WIRE 2464 1088 2416 1088
WIRE 2592 1088 2592 1040
WIRE 2592 1088 2528 1088
WIRE 2736 1088 2592 1088
WIRE 3024 1088 3024 960
WIRE 3024 1088 2992 1088
WIRE 3152 1088 3152 1040
WIRE 3152 1088 3088 1088
WIRE 3296 1088 3152 1088
WIRE 3552 1088 3552 960
WIRE 3552 1088 3520 1088
WIRE 3568 1088 3552 1088
WIRE 3696 1088 3696 1040
WIRE 3696 1088 3632 1088
WIRE 3808 1088 3696 1088
WIRE 4080 1088 4000 1088
WIRE 4224 1088 4224 960
WIRE 4224 1088 4160 1088
WIRE 4272 1088 4224 1088
WIRE 4400 1088 4400 1040
WIRE 4400 1088 4336 1088
WIRE 4544 1088 4400 1088
WIRE 4832 1088 4832 960
WIRE 4832 1088 4800 1088
WIRE 4960 1088 4960 1040
WIRE 4960 1088 4896 1088
WIRE 5104 1088 4960 1088
WIRE 5360 1088 5360 960
WIRE 5360 1088 5328 1088
WIRE 5376 1088 5360 1088
WIRE 5504 1088 5504 1040
WIRE 5504 1088 5440 1088
WIRE 5616 1088 5504 1088
WIRE 2864 1104 2864 960
WIRE 2864 1104 2800 1104
WIRE 2912 1104 2912 1088
WIRE 2912 1104 2864 1104
WIRE 3408 1104 3408 960
WIRE 3408 1104 3360 1104
WIRE 3440 1104 3440 1088
WIRE 3440 1104 3408 1104
WIRE 3936 1104 3936 960
WIRE 3936 1104 3872 1104
WIRE 4672 1104 4672 960
WIRE 4672 1104 4608 1104
WIRE 4720 1104 4720 1088
WIRE 4720 1104 4672 1104
WIRE 5216 1104 5216 960
WIRE 5216 1104 5168 1104
WIRE 5248 1104 5248 1088
WIRE 5248 1104 5216 1104
WIRE 5744 1104 5744 960
WIRE 5744 1104 5680 1104
WIRE 2736 1120 2672 1120
WIRE 3296 1120 3200 1120
WIRE 3808 1120 3712 1120
WIRE 4544 1120 4480 1120
WIRE 5104 1120 5008 1120
WIRE 5616 1120 5520 1120
WIRE 2416 1136 2416 1088
WIRE 3024 1136 3024 1088
WIRE 3552 1136 3552 1088
WIRE 4224 1136 4224 1088
WIRE 4832 1136 4832 1088
WIRE 5360 1136 5360 1088
WIRE 2416 1232 2416 1216
WIRE 2672 1232 2672 1120
WIRE 3024 1232 3024 1216
WIRE 3200 1232 3200 1120
WIRE 3552 1232 3552 1216
WIRE 3712 1232 3712 1120
WIRE 4224 1232 4224 1216
WIRE 4480 1232 4480 1120
WIRE 4832 1232 4832 1216
WIRE 5008 1232 5008 1120
WIRE 5360 1232 5360 1216
WIRE 5520 1232 5520 1120
WIRE 976 1376 928 1376
WIRE 1104 1376 1040 1376
WIRE 1376 1376 1104 1376
WIRE 1664 1376 1600 1376
WIRE 1920 1376 1664 1376
WIRE 2080 1376 2064 1376
WIRE 2208 1376 2144 1376
WIRE 2448 1376 2208 1376
WIRE 784 1504 704 1504
WIRE 928 1504 928 1376
WIRE 928 1504 864 1504
WIRE 976 1504 928 1504
WIRE 1104 1504 1104 1456
WIRE 1104 1504 1040 1504
WIRE 1248 1504 1104 1504
WIRE 1536 1504 1536 1376
WIRE 1536 1504 1504 1504
WIRE 1664 1504 1664 1456
WIRE 1664 1504 1600 1504
WIRE 1808 1504 1664 1504
WIRE 2064 1504 2064 1376
WIRE 2064 1504 2032 1504
WIRE 2080 1504 2064 1504
WIRE 2208 1504 2208 1456
WIRE 2208 1504 2144 1504
WIRE 2320 1504 2208 1504
WIRE 1376 1520 1376 1376
WIRE 1376 1520 1312 1520
WIRE 1424 1520 1424 1504
WIRE 1424 1520 1376 1520
WIRE 1920 1520 1920 1376
WIRE 1920 1520 1872 1520
WIRE 1952 1520 1952 1504
WIRE 1952 1520 1920 1520
WIRE 2448 1520 2448 1376
WIRE 2448 1520 2384 1520
WIRE 928 1536 928 1504
WIRE 1248 1536 1184 1536
WIRE 1808 1536 1712 1536
WIRE 2320 1536 2224 1536
WIRE 1536 1552 1536 1504
WIRE 2064 1552 2064 1504
WIRE 928 1632 928 1616
WIRE 1184 1632 1184 1536
WIRE 1536 1648 1536 1632
WIRE 1712 1648 1712 1536
WIRE 2064 1648 2064 1632
WIRE 2224 1648 2224 1536
WIRE 992 1792 944 1792
WIRE 1120 1792 1056 1792
WIRE 1392 1792 1120 1792
WIRE 1680 1792 1616 1792
WIRE 1936 1792 1680 1792
WIRE 2096 1792 2080 1792
WIRE 2224 1792 2160 1792
WIRE 2464 1792 2224 1792
WIRE 800 1920 720 1920
WIRE 944 1920 944 1792
WIRE 944 1920 880 1920
WIRE 992 1920 944 1920
WIRE 1120 1920 1120 1872
WIRE 1120 1920 1056 1920
WIRE 1264 1920 1120 1920
WIRE 1552 1920 1552 1792
WIRE 1552 1920 1520 1920
WIRE 1680 1920 1680 1872
WIRE 1680 1920 1616 1920
WIRE 1824 1920 1680 1920
WIRE 2080 1920 2080 1792
WIRE 2080 1920 2048 1920
WIRE 2096 1920 2080 1920
WIRE 2224 1920 2224 1872
WIRE 2224 1920 2160 1920
WIRE 2336 1920 2224 1920
WIRE 1392 1936 1392 1792
WIRE 1392 1936 1328 1936
WIRE 1440 1936 1440 1920
WIRE 1440 1936 1392 1936
WIRE 1936 1936 1936 1792
WIRE 1936 1936 1888 1936
WIRE 1968 1936 1968 1920
WIRE 1968 1936 1936 1936
WIRE 2464 1936 2464 1792
WIRE 2464 1936 2400 1936
WIRE 944 1952 944 1920
WIRE 1264 1952 1200 1952
WIRE 1824 1952 1728 1952
WIRE 2336 1952 2240 1952
WIRE 1552 1968 1552 1920
WIRE 2080 1968 2080 1920
WIRE 944 2048 944 2032
WIRE 1200 2048 1200 1952
WIRE 1552 2064 1552 2048
WIRE 1728 2064 1728 1952
WIRE 2080 2064 2080 2048
WIRE 2240 2064 2240 1952
WIRE 976 2160 928 2160
WIRE 1104 2160 1040 2160
WIRE 1376 2160 1104 2160
WIRE 1664 2160 1600 2160
WIRE 1920 2160 1664 2160
WIRE 2080 2160 2064 2160
WIRE 2208 2160 2144 2160
WIRE 2448 2160 2208 2160
WIRE 784 2288 704 2288
WIRE 928 2288 928 2160
WIRE 928 2288 864 2288
WIRE 976 2288 928 2288
WIRE 1104 2288 1104 2240
WIRE 1104 2288 1040 2288
WIRE 1248 2288 1104 2288
WIRE 1536 2288 1536 2160
WIRE 1536 2288 1504 2288
WIRE 1664 2288 1664 2240
WIRE 1664 2288 1600 2288
WIRE 1808 2288 1664 2288
WIRE 2064 2288 2064 2160
WIRE 2064 2288 2032 2288
WIRE 2080 2288 2064 2288
WIRE 2208 2288 2208 2240
WIRE 2208 2288 2144 2288
WIRE 2320 2288 2208 2288
WIRE 1376 2304 1376 2160
WIRE 1376 2304 1312 2304
WIRE 1424 2304 1424 2288
WIRE 1424 2304 1376 2304
WIRE 1920 2304 1920 2160
WIRE 1920 2304 1872 2304
WIRE 1952 2304 1952 2288
WIRE 1952 2304 1920 2304
WIRE 2448 2304 2448 2160
WIRE 2448 2304 2384 2304
WIRE 928 2320 928 2288
WIRE 1248 2320 1184 2320
WIRE 1808 2320 1712 2320
WIRE 2320 2320 2224 2320
WIRE 1536 2336 1536 2288
WIRE 2064 2336 2064 2288
WIRE 928 2416 928 2400
WIRE 1184 2416 1184 2320
WIRE 1536 2432 1536 2416
WIRE 1712 2432 1712 2320
WIRE 2064 2432 2064 2416
WIRE 2224 2432 2224 2320
FLAG 2256 -48 0
FLAG 2768 -48 0
FLAG 2608 -48 0
FLAG 2080 -48 0
FLAG 1472 -64 0
FLAG 1728 -64 0
FLAG 1824 -144 Vee
FLAG 1824 -208 Vcc
FLAG 2384 -144 Vee
FLAG 2384 -208 Vcc
FLAG 2896 -144 Vee
FLAG 2896 -208 Vcc
FLAG 1696 -528 Vcc
FLAG 1696 -384 0
FLAG 1872 -384 0
FLAG 1872 -528 Vee
FLAG 4064 -48 0
FLAG 3056 -176 Vi
FLAG 4576 -48 0
FLAG 4416 -48 0
FLAG 3888 -48 0
FLAG 3728 80 0
FLAG 3632 -144 Vee
FLAG 3632 -208 Vcc
FLAG 4192 -144 Vee
FLAG 4192 -208 Vcc
FLAG 4704 -144 Vee
FLAG 4704 -208 Vcc
FLAG 5872 -48 0
FLAG 4864 -176 Vi
FLAG 6384 -48 0
FLAG 6224 -48 0
FLAG 5696 -48 0
FLAG 5312 -48 0
FLAG 5088 -48 0
FLAG 5440 -144 Vee
FLAG 5440 -208 Vcc
FLAG 6512 -144 Vee
FLAG 6512 -208 Vcc
FLAG 6000 -144 Vee
FLAG 6000 -208 Vcc
FLAG 3152 576 0
FLAG 2144 448 Vi
FLAG 3664 576 0
FLAG 3504 576 0
FLAG 2976 576 0
FLAG 2816 720 0
FLAG 2720 480 Vee
FLAG 2720 416 Vcc
FLAG 3280 480 Vee
FLAG 3280 416 Vcc
FLAG 3792 480 Vee
FLAG 3792 416 Vcc
FLAG 4992 576 0
FLAG 3984 448 Vi
FLAG 5504 576 0
FLAG 5344 576 0
FLAG 4816 576 0
FLAG 4208 576 0
FLAG 4464 576 0
FLAG 4560 480 Vee
FLAG 4560 416 Vcc
FLAG 5120 480 Vee
FLAG 5120 416 Vcc
FLAG 5632 480 Vee
FLAG 5632 416 Vcc
FLAG 3200 1232 0
FLAG 2192 1104 Vi
FLAG 3712 1232 0
FLAG 3552 1232 0
FLAG 3024 1232 0
FLAG 2416 1232 0
FLAG 2672 1232 0
FLAG 2768 1136 Vee
FLAG 2768 1072 Vcc
FLAG 3328 1136 Vee
FLAG 3328 1072 Vcc
FLAG 3840 1136 Vee
FLAG 3840 1072 Vcc
FLAG 5008 1232 0
FLAG 800 176 0
FLAG 4000 1104 Vi
FLAG 5520 1232 0
FLAG 5360 1232 0
FLAG 4832 1232 0
FLAG 4224 1232 0
FLAG 4480 1232 0